Circuit: * Under Damped 2nd Order lpf


Date: Wed Aug 10 14:21:48 2022
Total elapsed time: 0.015 seconds.

tnom = 27
temp = 27
method = trap
totiter = 0
traniter = 0
tranpoints = 0
accept = 0
rejected = 0
matrix size = 4
fillins = 0
solver = Normal

