Circuit: *VCCS TEST


Date: Thu Aug 11 01:53:44 2022
Total elapsed time: 0.016 seconds.

tnom = 27
temp = 27
method = trap
totiter = 0
traniter = 0
tranpoints = 0
accept = 0
rejected = 0
matrix size = 5
fillins = 3
solver = Normal

