Circuit: CMOS inverter tran analysis

Instance "m7": Length shorter than recommended for a level 1 MOSFET.
Instance "m6": Length shorter than recommended for a level 1 MOSFET.
Direct Newton iteration for .op point succeeded.

trise=-1.98619e-012 FROM 6.70334e-012 TO 4.71715e-012


Date: Mon Aug 15 14:22:00 2022
Total elapsed time: 0.049 seconds.

tnom = 27
temp = 27
method = modified trap
totiter = 2248
traniter = 2241
tranpoints = 1094
accept = 1081
rejected = 13
matrix size = 5
fillins = 0
solver = Normal
Matrix Compiler1: 150 bytes object code size  0.1/0.1/[0.0]
Matrix Compiler2: off  [0.1]/0.1/0.1

