Circuit: * EE214B HSpice models, Boris Murmann, December 2016

Fatal Error: No analysis request found.
