Circuit: * Critical Damped

Fatal Error: No analysis request found.
