Circuit: Linear Circuit

Direct Newton iteration for .op point succeeded.

Date: Thu Aug 11 14:43:19 2022
Total elapsed time: 0.000 seconds.

tnom = 27
temp = 27
method = trap
totiter = 3
traniter = 0
tranpoints = 0
accept = 0
rejected = 0
matrix size = 5
fillins = 0
solver = Normal
Matrix Compiler1: 150 bytes object code size
Matrix Compiler2: 321 bytes object code size
