Circuit: *Non_Inverting Amp With unity Gain Config


Date: Wed Dec 21 18:27:43 2022
Total elapsed time: 0.084 seconds.

tnom = 27
temp = 27
method = trap
totiter = 0
traniter = 0
tranpoints = 0
accept = 0
rejected = 0
matrix size = 7
fillins = 4
solver = Normal

