Circuit: *Lap Part 2

WARNING: Less than two connections to node OUT.  This node is used by E:OP1:OUT.

Date: Thu Aug 11 12:04:56 2022
Total elapsed time: 0.239 seconds.

tnom = 27
temp = 27
method = trap
totiter = 0
traniter = 0
tranpoints = 0
accept = 0
rejected = 0
matrix size = 6
fillins = 1
solver = Normal

