Questionable use of curly braces in ".meas tran indiffpeak max {v(in+)-v(in-)}"
    Error: undefined symbol in: "[v](in+)-v(in-)"
Circuit: *Lap Part 2

.OP point found by inspection.

indiffpeak: MAX(v(in+)-v(in-))=0.970729 FROM 0 TO 2.5e-007
inpeak: MAX(v(in+))=0.999909 FROM 0 TO 2.5e-007
inpeak-: MAX(v(in-))=0.172781 FROM 0 TO 2.5e-007
peake: MAX(v(out))=1.72781 FROM 0 TO 2.5e-007


Date: Thu Aug 04 01:17:26 2022
Total elapsed time: 0.050 seconds.

tnom = 27
temp = 27
method = modified trap
totiter = 2082
traniter = 2082
tranpoints = 1042
accept = 1042
rejected = 0
matrix size = 6
fillins = 1
solver = Normal
Matrix Compiler1:      11 opcodes  0.1/[0.1]/0.1
Matrix Compiler2: 354 bytes object code size  0.1/0.1/[0.1]

