Circuit: *oP amp subcircuit

WARNING: Less than two connections to node OUT.  This node is used by E:OP1:OUTPUT.

Date: Tue Aug 02 12:08:23 2022
Total elapsed time: 0.016 seconds.

tnom = 27
temp = 27
method = trap
totiter = 0
traniter = 0
tranpoints = 0
accept = 0
rejected = 0
matrix size = 5
fillins = 0
solver = Normal

