Circuit: *************Notes***************

Fatal Error: No analysis request found.
